<configuration>
    <input>
        <net-file value="cross.net.xml"/>
        <route-files value="cross.rou.xml"/>
        <gui-settings-file value="cross.settings.xml"/>
        <additional-files value="cross.det.xml"/>
    </input>
    <time>
        <begin value="0"/>
        <end value="1000"/>
    </time>
</configuration>